417
 generated by VMD
  NA         5.720000        4.350000        3.630000
  NA        14.440001        4.080000       14.400001
  NA         9.460000       10.250000       13.630000
  F         4.750000        9.610001        6.550000
  F         4.640000       12.300000       10.880001
  F        12.340000       10.549999        2.590000
  O        14.049999        4.880000       11.630000
  H       14.630001        5.170000       10.920000
  H       13.179999        4.830000       11.230000
  O         9.150001       13.350000        5.400000
  H        8.260000       12.990000        5.430000
  H        9.710000       12.580000        5.330000
  O        11.150000        0.220000       12.890000
  H       11.100000        0.330000       11.940001
  H       11.000000       15.380000       13.030000
  O        12.139999       12.950000       10.219999
  H       11.650000       13.400001        9.530000
  H       12.820000       13.570000       10.480000
  O         8.840000        1.080000        3.140000
  H        9.030000        1.960000        3.450000
  H        9.530000        0.540000        3.550000
  O         3.560000        4.500000        1.900000
  H        3.090000        5.320000        1.990000
  H        2.880000        3.830000        1.920000
  O         5.000000        6.750000        8.490000
  H        5.010000        7.460000        7.850000
  H        5.040000        7.190000        9.340000
  O         5.030000        1.290000        2.300000
  H        5.610000        0.550000        2.160000
  H        5.050000        1.770000        1.470000
  O         8.360001        8.970000        7.420000
  H        8.800000        8.670000        6.620000
  H        9.060000        9.260000        7.990000
  O         8.840000       13.270000        2.600000
  H        9.139999       13.340000        3.500000
  H        9.639999       13.179999        2.080000
  O         7.550000        8.830000        3.210000
  H        7.250000        9.720000        3.020000
  H        7.770000        8.470000        2.350000
  O         4.480000       12.770000        1.570000
  H        4.750000       12.500000        2.450000
  H        3.760000       13.389999        1.730000
  O         7.460000        5.460000        6.030000
  H        7.010000        4.970000        6.720000
  H        6.840000        6.160000        5.800000
  O         0.660000        9.220000       10.010000
  H       16.090000        9.890000       10.150000
  H        1.120000        9.500000        9.220000
  O        14.420000       12.860001        4.530000
  H       15.100000       12.190000        4.660000
  H       13.710001       12.400000        4.090000
  O         8.140000       11.540001       10.940000
  H        8.389999       11.920000       10.100000
  H        7.190000       11.580000       10.950001
  O        10.590000       11.000000        5.600000
  H       11.270000       11.120000        4.930000
  H       10.200000       10.160000        5.390000
  O         3.400000        0.240000        4.610000
  H        3.570000       16.039999        5.510000
  H        4.120000        0.840000        4.420000
  O         3.090000        8.040000       13.740000
  H        3.220000        8.850000       13.240000
  H        3.420000        8.250000       14.610000
  O         0.050000       10.830000        5.000000
  H        0.850000       10.549999        5.440001
  H       15.900001       10.080000        4.460000
  O        11.929999        5.060000       13.850000
  H       11.660000        4.950000       12.930000
  H       11.139999        4.880000       14.349999
  O        13.950000       12.180000       13.730000
  H       14.850000       12.500000       13.730000
  H       14.010000       11.300000       13.370000
  O        14.309999       15.690001        7.880000
  H       13.740000       14.920000        7.850000
  H       15.190001       15.330000        7.970000
  O        12.980000       10.900001        8.250000
  H       12.300000       10.500000        8.790000
  H       13.250000       10.210000        7.650000
  O         8.730000        3.590000       10.430000
  H        9.220000        3.600000        9.610001
  H        8.440000        2.680000       10.520000
  O        14.260000        0.730000        2.750000
  H       15.180000        0.520000        2.570000
  H       14.080000        0.340000        3.600000
  O        10.250000        9.950000        0.410000
  H        9.420000       10.280000        0.770000
  H       10.880001       10.060000        1.120000
  O        15.110001        8.820001        3.540000
  H       14.930000        8.000000        4.010000
  H       14.240000        9.150001        3.310000
  O        11.180000       12.640000       14.280000
  H       12.070000       12.550000       13.930000
  H       11.310000       12.820000       15.210000
  O        12.469999        0.020000        0.610000
  H       11.540001        0.240000        0.710000
  H       12.880000        0.310000        1.420000
  O         8.320000        6.750000        9.070000
  H        8.059999        7.360000        8.380000
  H        7.870000        5.930000        8.870000
  O        11.300000        3.890000       11.310000
  H       10.349999        3.780000       11.289999
  H       11.650000        3.010000       11.190000
  O         7.340000        8.410000       14.880000
  H        7.260000        7.940001       14.049999
  H        6.630000        9.040000       14.870000
  O         0.360000       13.200001       13.950000
  H        0.830000       12.670000       14.590000
  H        0.180000       14.020000       14.410000
  O         3.030000        2.940000        8.330000
  H        3.750000        2.570000        8.850000
  H        2.900000        2.310000        7.630000
  O        13.500000       13.280000        7.000000
  H       13.340000       12.450000        7.460000
  H       14.030000       13.040000        6.240000
  O         4.590000        2.810000        5.820000
  H        5.140000        2.460000        6.520000
  H        4.260000        3.640000        6.180000
  O         7.770000       11.009999        1.670000
  H        7.030000       11.080000        1.050000
  H        8.130000       11.900001        1.700000
  O        14.840000        2.020000        9.320000
  H       14.770000        1.320000        8.670000
  H       13.990001        2.470000        9.270000
  O         9.740000        0.970000        0.190000
  H        9.160000        0.300000       15.940000
  H        9.460000        1.090000        1.100000
  O        16.090000        6.030000        9.800000
  H       16.090000        6.920000       10.150000
  H        0.850000        5.930000        9.390000
  O        15.420000       15.540000       15.679999
  H       15.980000       15.629999        0.350000
  H       14.730000       14.940000       15.950001
  O         3.100000       15.410000        1.100000
  H        3.390000        0.090000        1.580000
  H        3.280000       15.610000        0.180000
  O        14.360000        7.100000       13.850000
  H       15.270000        6.980000       13.600000
  H       13.860001        6.630000       13.179999
  O         4.750000        4.080000       11.690001
  H        5.490000        4.290000       12.259999
  H        4.560000        4.890000       11.230000
  O         4.770000        5.530000       14.510000
  H        4.030000        4.920000       14.420000
  H        4.410000        6.380000       14.250000
  O         0.630000        6.730000       12.880000
  H        0.600000        5.830000       12.539999
  H        1.560000        6.900000       13.010000
  O         8.030000        0.910000       10.330000
  H        7.300000        1.020000        9.720000
  H        7.730000        0.240000       10.940000
  O         6.970000        0.230000       14.379999
  H        6.760000        1.070000       13.980000
  H        7.330000       15.800000       13.680000
  O         7.300000        4.750000       15.180000
  H        7.110000        3.850000       15.460000
  H        6.470000        5.060000       14.809999
  O         9.530000        2.440000       13.780001
  H        9.440001        2.180000       14.700001
  H       10.160000        1.810000       13.430000
  O        10.360001        7.330000       11.660000
  H       10.599999        7.640000       12.530001
  H        9.440001        7.600000       11.560000
  O         4.900000        7.090000       11.240000
  H        4.430000        7.740000       11.770000
  H        5.800000        7.120000       11.570000
  O        10.880001        9.550000        9.260000
  H       10.920000        9.710000       10.210000
  H       11.070000        8.620000        9.170000
  O         0.630000        3.050000        4.240000
  H       15.770000        3.010000        4.280000
  H        0.930000        2.440000        4.910000
  O        12.020000        8.230000        4.560000
  H       12.450000        8.679999        5.290000
  H       12.130001        8.820001        3.820000
  O         7.070000       11.500000        5.250000
  H        6.850000       10.650001        5.630000
  H        6.840000       11.420000        4.320000
  O         9.220000       11.590000        8.120000
  H        9.250000       11.260000        7.220000
  H        9.740000       10.950001        8.620000
  O        12.240000        2.690000        5.660000
  H       13.170000        2.940000        5.730000
  H       11.799999        3.490000        5.390000
  O         6.680000        9.110001        9.700001
  H        5.800000        9.470000        9.710000
  H        6.990000        9.250000        8.800000
  O         2.340000        6.910000        1.680000
  H        1.430000        6.630000        1.570000
  H        2.320000        7.480000        2.460000
  O         6.110000       14.280000       15.830000
  H        6.390000       15.100000       15.420000
  H        6.170000       14.460000        0.670000
  O         2.650000        8.840000        4.130000
  H        2.030000        8.520000        4.790000
  H        3.480000        8.920000        4.600000
  O         9.980000       13.830000       12.139999
  H       10.360001       13.290000       11.440001
  H       10.310000       13.440000       12.950000
  O         7.180000       14.670000       12.240000
  H        7.940001       14.090000       12.230000
  H        6.440000       14.110001       12.000000
  O         5.560000       10.860000       16.059999
  H        5.100000       11.540001        0.450000
  H        4.970000       10.110001       16.090000
  O        11.540001       13.360000        1.170000
  H       12.010000       12.660000        1.620000
  H       12.139999       14.099999        1.190000
  O        11.680000       10.559999       11.570000
  H       11.860000       11.420000       11.190000
  H       12.500000       10.320000       12.010000
  O        13.890000        6.070000        8.010000
  H       14.480000        6.080000        8.760000
  H       13.099999        6.510000        8.309999
  O         0.360000       15.679999        2.040000
  H        0.330000       15.160000        2.840000
  H        1.290000       15.710000        1.800000
  O         7.180000       14.559999        7.690000
  H        6.430000       13.980000        7.810000
  H        7.890000       13.969999        7.420000
  O         0.900000        8.030000        6.600000
  H        1.260000        8.880000        6.850000
  H        1.050000        7.480000        7.360000
  O        15.240001        7.760000        1.050000
  H       15.390000        8.230000        1.870000
  H       15.530000        8.360001        0.370000
  O         4.330000        8.220000        0.380000
  H        3.660000        7.820000        0.930000
  H        5.110000        7.690000        0.540000
  O        15.050000       15.900001        5.360000
  H       14.460000       15.750000        6.100000
  H       15.400000       15.030001        5.150000
  O         0.230000        9.400000       15.330000
  H        0.840000        9.090000       14.660000
  H        0.610000       10.230000       15.629999
  O         7.630000        7.670000       11.770000
  H        7.770000        6.780000       11.469999
  H        7.440000        8.170000       10.970000
  O        10.740000        5.190000        2.400000
  H       10.500000        4.670000        1.630000
  H       11.210001        5.940000        2.040000
  O         5.750000        7.260000        4.430000
  H        6.350000        7.720000        3.840000
  H        5.480000        7.930000        5.060000
  O        11.640000        0.220000        4.530000
  H       11.310000       16.010000        5.380000
  H       11.710000        1.170000        4.630000
  O         0.730000       14.980000        7.780000
  H        0.880000       14.070000        8.020000
  H        1.600000       15.360001        7.690000
  O         7.580000       12.160000       14.510000
  H        6.790000       11.720000       14.180000
  H        7.250000       12.830000       15.100000
  O         5.880000        2.290000        0.070000
  H        5.380000        2.260000       15.349999
  H        6.480000        1.550000        0.010000
  O         0.770000        3.830000       12.890000
  H        1.100000        3.200000       13.530001
  H        1.040000        3.480000       12.040000
  O        13.930000        3.610000        3.330000
  H       14.070000        2.720000        3.020000
  H       13.000000        3.780000        3.190000
  O         2.480000        5.950000        8.630000
  H        3.260000        6.490000        8.540000
  H        2.790000        5.060000        8.500000
  O        14.889999       11.100000       10.400000
  H       15.369999       11.920000       10.290001
  H       14.160000       11.170000        9.780000
  O         5.050000        2.150000        9.740000
  H        4.730000        1.420000       10.270000
  H        5.020000        2.910000       10.320000
  O        13.800000        9.090000        6.510000
  H       14.680000        9.400000        6.310000
  H       13.940001        8.380000        7.140000
  O         2.630000       10.369999       12.090000
  H        3.170000       11.000000       11.619999
  H        1.960000       10.110001       11.450000
  O         9.280000        1.580000        7.280000
  H        8.450001        1.180000        7.520000
  H        9.860000        0.840000        7.110000
  O         3.910000       13.789999       14.360000
  H        4.760000       13.880000       14.780001
  H        4.090000       13.360000       13.520000
  O         6.180000       10.280000       12.950000
  H        6.780000       10.360001       12.209999
  H        5.400000       10.770000       12.690001
  O        10.910000        7.800000       14.290000
  H       11.100000        6.860000       14.280000
  H       11.260000        8.110000       15.120000
  O         5.830000        6.020000        1.100000
  H        6.120000        5.809999        0.210000
  H        4.940000        5.690000        1.150000
  O         1.170000        2.830000       10.440001
  H        0.330000        2.430000       10.230000
  H        1.690000        2.720000        9.639999
  O         0.830000       11.720000        2.110000
  H        0.020000       11.849999        1.620000
  H        0.570000       11.200000        2.870000
  O         4.860000       11.050000        3.660000
  H        4.880000       10.610000        4.510000
  H        3.940000       11.059999        3.410000
  O        12.020000        2.740000        8.630000
  H       12.380000        2.620000        7.750000
  H       11.390000        3.450000        8.540000
  O         4.500000        2.230000       13.630000
  H        4.600000        2.850000       12.920000
  H        3.600000        2.370000       13.950000
  O         2.590000        0.010000       14.270000
  H        3.190000        0.340000       13.590000
  H        2.720000       15.160000       14.260000
  O         8.860000        7.430000        0.990000
  H        8.280000        7.700000        0.270000
  H        9.599999        8.030000        0.940000
  O        10.860000        0.490000       10.140000
  H        9.920000        0.310000       10.039999
  H       11.130000        0.840000        9.290000
  O         8.580000        3.080000        5.040000
  H        8.380000        3.960000        5.340000
  H        8.730000        2.580000        5.840000
  O         6.320000        1.260000        7.560000
  H        6.240000        0.320000        7.400000
  H        5.710000        1.440000        8.280000
  O         7.910000        5.100000        2.290000
  H        7.440000        5.670000        1.680000
  H        8.830000        5.350000        2.210000
  O         1.270000        1.340000        6.060000
  H        1.800000        0.980000        5.350000
  H        0.440000        0.860000        6.000000
  O         1.210000        3.100000        1.610000
  H        1.080000        3.060000        2.560000
  H        0.640000        3.810000        1.310000
  O         1.980000       10.420000        7.340000
  H        2.910000       10.270000        7.250000
  H        1.910000       11.289999        7.730000
  O        10.650001       15.250000        6.890000
  H       10.039999       14.660000        6.440000
  H       11.400000       14.700001        7.100000
  O         1.840000       15.950001       11.300000
  H        1.340000        0.660000       11.180000
  H        1.210000       15.250000       11.110000
  O         6.650000        4.600000        8.500000
  H        5.860000        5.110000        8.679999
  H        6.680000        3.950000        9.200000
  O        15.130000        5.150000        0.850000
  H       14.750000        4.910000        1.690000
  H       15.020000        6.100000        0.800000
  O         1.330000        5.860000        4.340000
  H        1.020000        4.960000        4.210000
  H        0.550000        6.340000        4.630000
  O         7.560000        4.810000       12.400000
  H        8.140000        4.320000       11.820001
  H        7.750000        4.470000       13.270000
  O        14.540000       12.280001        0.870000
  H       14.429999       12.380000       16.030001
  H       13.820000       11.700000        1.130000
  O        14.630001        3.710000        6.530000
  H       14.470000        4.550000        6.960000
  H       15.219999        3.240000        7.120000
  O         1.700000       12.589999        9.110001
  H        2.520000       12.209999        9.420000
  H        1.280000       12.930000        9.890000
  O         9.880000        5.260000       15.840000
  H        8.950000        5.120000       15.629999
  H        9.880000        6.090000        0.220000
  O         3.620000        5.330000        5.860000
  H        3.010000        5.560000        5.160000
  H        3.600000        6.080000        6.460000
  O        12.400000        7.820000        0.880000
  H       12.430000        8.690001        1.300000
  H       13.309999        7.660000        0.620000
  O         4.870000       12.710000        7.800000
  H        5.000000       11.900001        7.290000
  H        4.860000       12.420000        8.710000
  O        10.219999        4.780000        7.040000
  H        9.390000        5.150000        6.730000
  H       10.889999        5.190000        6.500000
  O        14.119999        9.730000       12.760000
  H       14.750000        9.700001       12.040000
  H       14.320001        8.960000       13.280000
  O        14.140000       15.219999       10.889999
  H       14.360000       15.790000       10.150000
  H       14.119999       15.809999       11.640000
  O        11.710000        5.580000        4.880000
  H       12.080000        6.440000        4.710000
  H       11.160001        5.400000        4.120000
  O         9.440001        8.349999        5.020000
  H        8.870000        8.380000        4.250000
  H       10.240001        7.930000        4.700000
  O        14.690000        6.390000        4.520000
  H       14.340000        5.550000        4.220000
  H       14.510000        6.400000        5.460000
  O         0.300000       13.570000       11.360001
  H        0.480000       13.260000       12.250000
  H       15.510000       13.920000       11.410000
  O         7.059999       15.450000        2.170000
  H        7.640000        0.050000        2.480000
  H        7.530000       14.639999        2.360000
  O         3.590000       15.230000        7.600000
  H        4.020000       14.370001        7.590000
  H        3.840000       15.610000        8.450001
  O         4.280000       15.670000       10.190001
  H        4.680000       14.800000       10.170000
  H        3.560000       15.590000       10.809999
  O         2.100000        2.600000       15.010000
  H        1.830000        2.750000       15.910000
  H        2.070000        1.650000       14.900000
  O         2.110000       11.680000       15.470000
  H        2.880000       12.180000       15.190001
  H        2.150000       11.710000        0.330000
  O        11.420000        6.870000        8.880000
  H       10.720000        6.430000        8.389999
  H       11.130000        6.830000        9.790000
  O        13.890000        1.210000       14.190001
  H       12.970000        0.970000       14.280000
  H       14.349999        0.620000       14.780001
  O         1.220000       14.309999        4.310000
  H        2.090000       14.690000        4.450000
  H        1.380000       13.490000        3.860000
