1

Mg 0 0 0
1

Mg 0 0 0
1

Mg 0 0 0
1

Mg 0 0 0
1

Mg 0 0 0
1

Mg 0 0 0
1

Mg 0 0 0
1

Mg 0 0 0
1

Mg 0 0 0
1

Mg 0 0 0
1

Mg 0 0 0
1

Mg 0 0 0
1

Mg 0 0 0
1

Mg 0 0 0
1

Mg 0 0 0
1

Mg 0 0 0
1

Mg 0 0 0
1

Mg 0 0 0
1

Mg 0 0 0
1

Mg 0 0 0
1

Mg 0 0 0
1

Mg 0 0 0
1

Mg 0 0 0
1

Mg 0 0 0
1

Mg 0 0 0
1

Mg 0 0 0
1

Mg 0 0 0
1

Mg 0 0 0
1

Mg 0 0 0
1

Mg 0 0 0
1

Mg 0 0 0
1

Mg 0 0 0
1

Mg 0 0 0
1

Mg 0 0 0
1

Mg 0 0 0
1

Mg 0 0 0
1

Mg 0 0 0
1

Mg 0 0 0
1

Mg 0 0 0
1

Mg 0 0 0
1

Mg 0 0 0
1

Mg 0 0 0
1

Mg 0 0 0
1

Mg 0 0 0
1

Mg 0 0 0
1

Mg 0 0 0
1

Mg 0 0 0
1

Mg 0 0 0
1

Mg 0 0 0
1

Mg 0 0 0
1

Mg 0 0 0
1

Mg 0 0 0
1

Mg 0 0 0
1

Mg 0 0 0
1

Mg 0 0 0
1

Mg 0 0 0
1

Mg 0 0 0
1

Mg 0 0 0
1

Mg 0 0 0
1

Mg 0 0 0
1

Mg 0 0 0
1

Mg 0 0 0
1

Mg 0 0 0
1

Mg 0 0 0
1

Mg 0 0 0
1

Mg 0 0 0
1

Mg 0 0 0
1

Mg 0 0 0
1

Mg 0 0 0
1

Mg 0 0 0
1

Mg 0 0 0
1

Mg 0 0 0
1

Mg 0 0 0
1

Mg 0 0 0
1

Mg 0 0 0
1

Mg 0 0 0
1

Mg 0 0 0
1

Mg 0 0 0
1

Mg 0 0 0
1

Mg 0 0 0
1

Mg 0 0 0
1

Mg 0 0 0
1

Mg 0 0 0
1

Mg 0 0 0
1

Mg 0 0 0
1

Mg 0 0 0
1

Mg 0 0 0
1

Mg 0 0 0
1

Mg 0 0 0
1

Mg 0 0 0
1

Mg 0 0 0
1

Mg 0 0 0
1

Mg 0 0 0
1

Mg 0 0 0
1

Mg 0 0 0
1

Mg 0 0 0
1

Mg 0 0 0
1

Mg 0 0 0
1

Mg 0 0 0
1

Mg 0 0 0
1

Mg 0 0 0
1

Mg 0 0 0
1

Mg 0 0 0
1

Mg 0 0 0
1

Mg 0 0 0
1

Mg 0 0 0
1

Mg 0 0 0
1

Mg 0 0 0
1

Mg 0 0 0
1

Mg 0 0 0
1

Mg 0 0 0
1

Mg 0 0 0
1

Mg 0 0 0
1

Mg 0 0 0
1

Mg 0 0 0
1

Mg 0 0 0
1

Mg 0 0 0
1

Mg 0 0 0
1

Mg 0 0 0
1

Mg 0 0 0
1

Mg 0 0 0
1

Mg 0 0 0
1

Mg 0 0 0
1

Mg 0 0 0
1

Mg 0 0 0
1

Mg 0 0 0
1

Mg 0 0 0
1

Mg 0 0 0
1

Mg 0 0 0
1

Mg 0 0 0
1

Mg 0 0 0
1

Mg 0 0 0
1

Mg 0 0 0
1

Mg 0 0 0
1

Mg 0 0 0
1

Mg 0 0 0
1

Mg 0 0 0
1

Mg 0 0 0
1

Mg 0 0 0
1

Mg 0 0 0
1

Mg 0 0 0
1

Mg 0 0 0
1

Mg 0 0 0
1

Mg 0 0 0
1

Mg 0 0 0
1

Mg 0 0 0
1

Mg 0 0 0
1

Mg 0 0 0
1

Mg 0 0 0
1

Mg 0 0 0
1

Mg 0 0 0
1

Mg 0 0 0
1

Mg 0 0 0
1

Mg 0 0 0
1

Mg 0 0 0
1

Mg 0 0 0
1

Mg 0 0 0
1

Mg 0 0 0
1

Mg 0 0 0
1

Mg 0 0 0
1

Mg 0 0 0
1

Mg 0 0 0
1

Mg 0 0 0
1

Mg 0 0 0
1

Mg 0 0 0
1

Mg 0 0 0
1

Mg 0 0 0
1

Mg 0 0 0
1

Mg 0 0 0
1

Mg 0 0 0
1

Mg 0 0 0
1

Mg 0 0 0
1

Mg 0 0 0
1

Mg 0 0 0
1

Mg 0 0 0
1

Mg 0 0 0
1

Mg 0 0 0
1

Mg 0 0 0
1

Mg 0 0 0
1

Mg 0 0 0
1

Mg 0 0 0
1

Mg 0 0 0
1

Mg 0 0 0
1

Mg 0 0 0
1

Mg 0 0 0
1

Mg 0 0 0
1

Mg 0 0 0
1

Mg 0 0 0
1

Mg 0 0 0
1

Mg 0 0 0
1

Mg 0 0 0
1

Mg 0 0 0
1

Mg 0 0 0
1

Mg 0 0 0
1

Mg 0 0 0
1

Mg 0 0 0
1

Mg 0 0 0
1

Mg 0 0 0
1

Mg 0 0 0
1

Mg 0 0 0
1

Mg 0 0 0
1

Mg 0 0 0
1

Mg 0 0 0
1

Mg 0 0 0
1

Mg 0 0 0
1

Mg 0 0 0
1

Mg 0 0 0
1

Mg 0 0 0
1

Mg 0 0 0
1

Mg 0 0 0
1

Mg 0 0 0
1

Mg 0 0 0
1

Mg 0 0 0
1

Mg 0 0 0
1

Mg 0 0 0
1

Mg 0 0 0
1

Mg 0 0 0
1

Mg 0 0 0
1

Mg 0 0 0
1

Mg 0 0 0
1

Mg 0 0 0
1

Mg 0 0 0
1

Mg 0 0 0
1

Mg 0 0 0
1

Mg 0 0 0
1

Mg 0 0 0
1

Mg 0 0 0
1

Mg 0 0 0
1

Mg 0 0 0
1

Mg 0 0 0
1

Mg 0 0 0
1

Mg 0 0 0
1

Mg 0 0 0
1

Mg 0 0 0
1

Mg 0 0 0
1

Mg 0 0 0
1

Mg 0 0 0
1

Mg 0 0 0
1

Mg 0 0 0
1

Mg 0 0 0
1

Mg 0 0 0
1

Mg 0 0 0
1

Mg 0 0 0
1

Mg 0 0 0
1

Mg 0 0 0
1

Mg 0 0 0
1

Mg 0 0 0
1

Mg 0 0 0
1

Mg 0 0 0
1

Mg 0 0 0
1

Mg 0 0 0
1

Mg 0 0 0
1

Mg 0 0 0
1

Mg 0 0 0
1

Mg 0 0 0
1

Mg 0 0 0
1

Mg 0 0 0
1

Mg 0 0 0
1

Mg 0 0 0
1

Mg 0 0 0
1

Mg 0 0 0
1

Mg 0 0 0
1

Mg 0 0 0
1

Mg 0 0 0
1

Mg 0 0 0
1

Mg 0 0 0
1

Mg 0 0 0
1

Mg 0 0 0
1

Mg 0 0 0
1

Mg 0 0 0
1

Mg 0 0 0
1

Mg 0 0 0
1

Mg 0 0 0
1

Mg 0 0 0
1

Mg 0 0 0
1

Mg 0 0 0
1

Mg 0 0 0
1

Mg 0 0 0
1

Mg 0 0 0
1

Mg 0 0 0
1

Mg 0 0 0
1

Mg 0 0 0
1

Mg 0 0 0
1

Mg 0 0 0
1

Mg 0 0 0
1

Mg 0 0 0
1

Mg 0 0 0
1

Mg 0 0 0
1

Mg 0 0 0
1

Mg 0 0 0
1

Mg 0 0 0
1

Mg 0 0 0
1

Mg 0 0 0
1

Mg 0 0 0
1

Mg 0 0 0
1

Mg 0 0 0
1

Mg 0 0 0
1

Mg 0 0 0
1

Mg 0 0 0
1

Mg 0 0 0
1

Mg 0 0 0
1

Mg 0 0 0
1

Mg 0 0 0
1

Mg 0 0 0
1

Mg 0 0 0
1

Mg 0 0 0
1

Mg 0 0 0
1

Mg 0 0 0
1

Mg 0 0 0
1

Mg 0 0 0
1

Mg 0 0 0
1

Mg 0 0 0
1

Mg 0 0 0
1

Mg 0 0 0
1

Mg 0 0 0
1

Mg 0 0 0
1

Mg 0 0 0
1

Mg 0 0 0
1

Mg 0 0 0
1

Mg 0 0 0
1

Mg 0 0 0
1

Mg 0 0 0
1

Mg 0 0 0
1

Mg 0 0 0
1

Mg 0 0 0
1

Mg 0 0 0
1

Mg 0 0 0
1

Mg 0 0 0
1

Mg 0 0 0
1

Mg 0 0 0
1

Mg 0 0 0
1

Mg 0 0 0
1

Mg 0 0 0
1

Mg 0 0 0
1

Mg 0 0 0
1

Mg 0 0 0
1

Mg 0 0 0
1

Mg 0 0 0
1

Mg 0 0 0
1

Mg 0 0 0
1

Mg 0 0 0
1

Mg 0 0 0
1

Mg 0 0 0
1

Mg 0 0 0
1

Mg 0 0 0
1

Mg 0 0 0
1

Mg 0 0 0
1

Mg 0 0 0
1

Mg 0 0 0
1

Mg 0 0 0
1

Mg 0 0 0
1

Mg 0 0 0
1

Mg 0 0 0
1

Mg 0 0 0
1

Mg 0 0 0
1

Mg 0 0 0
1

Mg 0 0 0
1

Mg 0 0 0
1

Mg 0 0 0
1

Mg 0 0 0
1

Mg 0 0 0
1

Mg 0 0 0
1

Mg 0 0 0
1

Mg 0 0 0
1

Mg 0 0 0
1

Mg 0 0 0
1

Mg 0 0 0
1

Mg 0 0 0
1

Mg 0 0 0
1

Mg 0 0 0
1

Mg 0 0 0
1

Mg 0 0 0
1

Mg 0 0 0
1

Mg 0 0 0
1

Mg 0 0 0
1

Mg 0 0 0
1

Mg 0 0 0
1

Mg 0 0 0
1

Mg 0 0 0
1

Mg 0 0 0
1

Mg 0 0 0
1

Mg 0 0 0
1

Mg 0 0 0
1

Mg 0 0 0
1

Mg 0 0 0
1

Mg 0 0 0
1

Mg 0 0 0
1

Mg 0 0 0
1

Mg 0 0 0
1

Mg 0 0 0
1

Mg 0 0 0
1

Mg 0 0 0
1

Mg 0 0 0
1

Mg 0 0 0
1

Mg 0 0 0
1

Mg 0 0 0
1

Mg 0 0 0
1

Mg 0 0 0
1

Mg 0 0 0
1

Mg 0 0 0
1

Mg 0 0 0
1

Mg 0 0 0
1

Mg 0 0 0
1

Mg 0 0 0
1

Mg 0 0 0
1

Mg 0 0 0
1

Mg 0 0 0
1

Mg 0 0 0
1

Mg 0 0 0
1

Mg 0 0 0
1

Mg 0 0 0
1

Mg 0 0 0
1

Mg 0 0 0
1

Mg 0 0 0
1

Mg 0 0 0
1

Mg 0 0 0
1

Mg 0 0 0
1

Mg 0 0 0
1

Mg 0 0 0
1

Mg 0 0 0
1

Mg 0 0 0
1

Mg 0 0 0
1

Mg 0 0 0
1

Mg 0 0 0
1

Mg 0 0 0
1

Mg 0 0 0
1

Mg 0 0 0
1

Mg 0 0 0
1

Mg 0 0 0
1

Mg 0 0 0
1

Mg 0 0 0
1

Mg 0 0 0
1

Mg 0 0 0
1

Mg 0 0 0
1

Mg 0 0 0
1

Mg 0 0 0
1

Mg 0 0 0
1

Mg 0 0 0
1

Mg 0 0 0
1

Mg 0 0 0
1

Mg 0 0 0
1

Mg 0 0 0
1

Mg 0 0 0
1

Mg 0 0 0
1

Mg 0 0 0
1

Mg 0 0 0
1

Mg 0 0 0
1

Mg 0 0 0
1

Mg 0 0 0
1

Mg 0 0 0
1

Mg 0 0 0
1

Mg 0 0 0
1

Mg 0 0 0
1

Mg 0 0 0
1

Mg 0 0 0
1

Mg 0 0 0
1

Mg 0 0 0
1

Mg 0 0 0
1

Mg 0 0 0
1

Mg 0 0 0
1

Mg 0 0 0
1

Mg 0 0 0
1

Mg 0 0 0
1

Mg 0 0 0
1

Mg 0 0 0
1

Mg 0 0 0
1

Mg 0 0 0
1

Mg 0 0 0
1

Mg 0 0 0
1

Mg 0 0 0
1

Mg 0 0 0
1

Mg 0 0 0
1

Mg 0 0 0
1

Mg 0 0 0
1

Mg 0 0 0
1

Mg 0 0 0
1

Mg 0 0 0
1

Mg 0 0 0
1

Mg 0 0 0
1

Mg 0 0 0
1

Mg 0 0 0
1

Mg 0 0 0
1

Mg 0 0 0
1

Mg 0 0 0
1

Mg 0 0 0
1

Mg 0 0 0
1

Mg 0 0 0
1

Mg 0 0 0
1

Mg 0 0 0
1

Mg 0 0 0
1

Mg 0 0 0
1

Mg 0 0 0
1

Mg 0 0 0
1

Mg 0 0 0
1

Mg 0 0 0
1

Mg 0 0 0
1

Mg 0 0 0
1

Mg 0 0 0
1

Mg 0 0 0
1

Mg 0 0 0
1

Mg 0 0 0
1

Mg 0 0 0
1

Mg 0 0 0
1

Mg 0 0 0
1

Mg 0 0 0
1

Mg 0 0 0
1

Mg 0 0 0
1

Mg 0 0 0
1

Mg 0 0 0
1

Mg 0 0 0
1

Mg 0 0 0
1

Mg 0 0 0
1

Mg 0 0 0
1

Mg 0 0 0
1

Mg 0 0 0
1

Mg 0 0 0
1

Mg 0 0 0
1

Mg 0 0 0
1

Mg 0 0 0
1

Mg 0 0 0
1

Mg 0 0 0
1

Mg 0 0 0
